******
* Spice Model
* Item: 2N5109
* Date: 10/05/09
* Revision History: REV A
*==========================================================
* This model was developed by: 
* Central Semiconductor Corp.
* 145 Adams Avenue
* Hauppauge, NY 11788
*
* These models are subject to change without notice.
* Users may not directly or indirectly re-sell or 
* re-distribute this model. This model may not 
* be modified, or altered without the consent of Central Semiconductor Corp. 
*
* For more information on this model contact
* Central Semiconductor Corp. at:
* (631) 435-1110 or Engineering@centralsemi.com
* http://www.centralsemi.com
*===========================================================
*
******
*SRC=2N5109;2N5109;BJTs NPN; Si;  40V  400mA  1200MHz   CENTRAL TRANSISTOR
.MODEL 2N5109  NPN (IS=9.4726e-17 BF=184.879 NF=0.85 VAF=10
+IKF=0.0926411 ISE=1e-16 NE=1.05624 BR=6.59288
+NR=0.852609 VAR=16.7142 IKR=0.926411 ISC=1e-16
+NC=2.68583 RB=8.58292 IRB=0.1 RBM=0.1
+RE=0.00193152 RC=0.706167 XTB=0.1 XTI=1
+EG=1.05 CJE=1.72409e-11 VJE=0.4 MJE=0.38683
+TF=6.65036e-11 XTF=9.69679 VTF=53.5315 ITF=0.383446
+CJC=9.75659e-12 VJC=0.95 MJC=0.23 XCJC=0.512043
+FC=0.8 CJS=0 VJS=0.75 MJS=0.5
+TR=1e-07 PTF=0 KF=0 AF=1)
******